# opt freq b3lyp/6-311g** scrf(solvent=CCl4)

Title Card Required

0 1
 C                 -2.28939283    0.19672778    0.03498249
 H                 -1.98084283   -0.80118827   -0.19709606
 H                 -1.99098619    0.43920271    1.03351110
 H                 -3.35381975    0.26903292   -0.04667111
 C                 -1.63097767    1.17993284   -0.95061240
 O                 -2.29839453    2.39494969   -1.30159500
 O                 -0.35217531    0.87789211   -1.51482505
 C                  0.67669245    1.40559253   -0.67347886
 H                  0.60294934    0.96541478    0.29899505
 H                  1.63355855    1.17959003   -1.09565196
 H                  0.56342155    2.46662554   -0.59424090



