# opt freq b3lyp/6-311g** scrf(solvent=CCl4)

Title Card Required

0 1
 C                 -2.20276643    0.37417977    0.08980976
 H                 -1.76063711   -0.60009408    0.10437430
 H                 -1.92534477    0.90503980    0.97644658
 H                 -3.26795507    0.28187751    0.04793540
 C                 -1.70530664    1.14521040   -1.14697864
 O                 -2.54266819    2.12829411   -1.76120339
 N                 -0.36967442    0.87061161   -1.69614351
 C                  0.61494969    1.75371899   -1.05463221
 H                  1.58714457    1.55384096   -1.45436447
 H                  0.35477506    2.77436240   -1.24303656
 H                  0.61962860    1.57575965    0.00045479
 H                 -0.12652056   -0.08326073   -1.52006468


